288
Reordered Structure 8-1-2-4-3-5-6-7
C     3.399921  -14.183151  -10.161736 
C     3.335741  -15.560649  -10.350334 
C     4.110692  -16.441228   -9.585373 
C     4.955155  -15.892742   -8.621521 
C     5.022458  -14.479305   -8.426811 
C     4.249316  -13.630060   -9.192469 
N     5.837299  -16.535028   -7.719594 
C     6.494743  -15.599621   -6.924649 
C     6.017830  -14.184085   -7.322475 
C     5.319208  -13.502076   -6.162095 
C     7.410060  -15.995036   -5.961455 
C     8.182576  -15.290917   -5.058671 
C     9.132250  -15.825777   -4.075064 
C     9.466740  -14.464178   -3.660899 
C     8.498951  -13.903729   -4.626653 
C    10.399929  -14.068677   -2.710303 
O     8.105575  -12.779698   -4.940145 
C    10.787178  -12.834458   -2.236336 
N    11.777061  -12.714695   -1.250732 
C    11.989907  -11.360332   -0.923155 
C    11.125439  -10.534784   -1.706873 
C    10.293540  -11.420456   -2.613964 
C    12.871522  -10.789424   -0.005479 
C    12.880633   -9.396987    0.118402 
C    12.035984   -8.581901   -0.643266 
C    11.144986   -9.164212   -1.568448 
C    12.463238  -13.813272   -0.646636 
C     6.019014  -17.951955   -7.640383 
C     9.525797  -17.078648   -3.699430 
C    10.603763  -11.107094   -4.065225 
C    10.481853  -17.305623   -2.681033 
N    11.263919  -17.532473   -1.847060 
C     9.006558  -18.253430   -4.293463 
N     8.601767  -19.243176   -4.757570 
C     8.820741  -11.255176   -2.293554 
C     7.167225  -13.358727   -7.868090 
C     0.000000    0.000000    0.000000 
C     0.000000    1.399246    0.000000 
C     1.187484    2.137232    0.000000 
C     2.393688    1.437487   -0.004858 
C     2.402730    0.008471   -0.009308 
C     1.222633   -0.702733   -0.003513 
N     3.719761    1.919351   -0.009599 
C     4.630557    0.856449   -0.010879 
C     3.841003   -0.471324   -0.027371 
C     4.108766   -1.243896   -1.305122 
C     5.991386    1.083277    0.007440 
C     7.088069    0.233294    0.008385 
C     8.504704    0.596794    0.066087 
C     8.868868   -0.822340    0.000661 
C     7.435409   -1.204078   -0.052251 
C    10.137510   -1.374219    0.003445 
O     6.810950   -2.263547   -0.115937 
C    10.594801   -2.677092   -0.088028 
N    11.959533   -2.965966   -0.056893 
C    12.177936   -4.355877   -0.191934 
C    10.922893   -5.027317   -0.311558 
C     9.810091   -3.999828   -0.240555 
C    13.371747   -5.075037   -0.217683
C    13.297895   -6.463576   -0.364466 
C    12.073144   -7.129799   -0.486460 
C    10.868888   -6.396491   -0.459160 
C    13.000486   -1.993411    0.071809 
C     4.079293    3.302857    0.013055 
C     9.201203    1.768714    0.148797 
C     8.946527   -4.259035    0.979313 
C    10.615232    1.817125    0.179606 
N    11.777801    1.897625    0.206042 
C     8.566350    3.031979    0.211541 
N     8.079983    4.089821    0.266693 
C     4.132468   -1.293690    1.212481 
C     9.006954   -4.010721   -1.526408 
C    -1.260876   -0.738305    0.001175 
C    -2.318387   -0.331043   -0.819828 
C    -3.535631   -1.018308   -0.850818 
C    -3.677533   -2.135125   -0.028535 
C    -2.605899   -2.553938    0.818429 
C    -1.411004   -1.867540    0.832391 
N    -4.779199   -3.003314    0.138073 
C    -4.479747   -4.006494    1.063085 
C    -3.049961   -3.774210    1.601334 
C    -3.078601   -3.449957    3.083267 
C    -5.391524   -5.002931    1.356426 
C    -5.352644   -6.089327    2.214704 
C    -6.365384   -7.134158    2.387714 
C    -5.524889   -7.777463    3.400051 
C    -4.495221   -6.723391    3.244962 
C    -5.780113   -8.948177    4.096718 
O    -3.401687   -6.476516    3.754388 
C    -5.103579   -9.604684    5.106038 
N    -5.589301  -10.801206    5.641845 
C    -4.757754  -11.249867    6.690930 
C    -3.669423  -10.339956    6.862155 
C    -3.796131   -9.228449    5.838535 
C    -4.870324  -12.379905    7.499826 
C    -3.891353  -12.588312    8.475993 
C    -2.826517  -11.698435    8.655518 
C    -2.717300  -10.557309    7.834441 
C    -6.789450  -11.456568    5.223674 
C    -6.012711   -2.891088   -0.576774 
C    -7.587297   -7.396725    1.836885 
C    -2.614518   -9.272261    4.887561 
C    -8.379735   -8.501957    2.228365 
N    -9.061584   -9.398968    2.526907 
C    -8.162499   -6.584532    0.830856 
N    -8.667088   -5.941382   -0.000084 
C    -3.924768   -7.886587    6.531436 
C    -2.150756   -4.953935    1.289445 
C    -1.825581  -11.947515    9.690543 
C    -1.304816  -13.233418    9.872938 
C    -0.343784  -13.508288   10.850491 
C     0.087885  -12.456621   11.657721 
C    -0.443535  -11.141815   11.482998 
C    -1.385077  -10.887463   10.509380 
N     1.031225  -12.450105   12.708293 
C     1.163741  -11.165341   13.242934 
C     0.191410  -10.218387   12.504453 
C    -0.871909   -9.693084   13.450785 
C     2.063592  -10.903833   14.257809 
C     2.386933   -9.750178   14.954157 
C     3.420963   -9.580191   15.977869 
C     3.029948   -8.176835   16.135455 
C     1.984074   -8.331187   15.096395 
C     3.574793   -7.235246   16.993114 
O     1.144976   -7.596046   14.574882 
C     3.267632   -5.913357   17.253346 
N     3.999205   -5.172990   18.185742 
C     3.482729   -3.863465   18.296858 
C     2.371957   -3.709753   17.411389
C     2.160828   -5.011299   16.662379 
C     3.902376   -2.802744   19.098553 
C     3.205943   -1.594249   19.004528 
C     2.114511   -1.436030   18.143033 
C     1.691627   -2.513286   17.337789 
C     5.102639   -5.674755   18.944652 
C     1.780330  -13.592761   13.130357 
C     4.361942  -10.391329   16.545037 
C     2.380174   -4.790960   15.177486 
C     4.529706  -11.745541   16.169623 
N     4.699712  -12.863108   15.885375 
C     5.249065   -9.944549   17.553137 
N     5.995258   -9.614073   18.385389 
C     0.784409   -5.571493   16.961861 
C     0.941784   -9.100611   11.807973 
C   -12.641407    0.254478   18.823456 
C   -13.325545    1.433365   18.505846 
C   -12.650913    2.606643   18.155724 
C   -11.257411    2.575594   18.125202 
C   -10.550358    1.374892   18.441406 
C   -11.231982    0.228581   18.789219 
N   -10.336419    3.598992   17.811626 
C    -9.024268    3.131331   17.923790 
C    -9.062226    1.635606   18.310142 
C    -8.487016    0.778080   17.198356 
C    -7.947537    3.971649   17.715803 
C    -6.576974    3.774382   17.760429 
C    -5.521458    4.778288   17.603658 
C    -4.507795    3.735500   17.780247 
C    -5.563462    2.706566   17.933466 
C    -3.130431    3.885715   17.789900 
O    -5.588134    1.489655   18.120084 
C    -2.087904    2.984488   17.885572 
N    -0.758543    3.416128   17.875706 
C     0.122364    2.314419   17.936313 
C    -0.630437    1.101632   18.000977 
C    -2.107928    1.443449   17.998124 
C     1.516279    2.285233   17.943264 
C     2.145630    1.039054   18.014745 
C     1.416553   -0.154113   18.071571 
C     0.007120   -0.118867   18.062595 
C    -0.342122    4.780251   17.771583 
C   -10.701040    4.940685   17.476770 
C    -5.493882    6.125879   17.383357 
C    -2.737225    1.007570   19.308228 
C    -6.669119    6.906385   17.271769 
N    -7.613856    7.582561   17.177214 
C    -4.287634    6.853508   17.247823 
N    -3.315864    7.485942   17.127867 
C    -8.366612    1.396030   19.635343 
C    -2.792250    0.817569   16.799250 
C   -13.384535   -0.948201   19.192907 
C   -14.531838   -1.314380   18.480095 
C   -15.274015   -2.452206   18.810204 
C   -14.841832   -3.225926   19.886608 
C   -13.671033   -2.860335   20.619531 
C   -12.948291   -1.738172   20.276443 
N   -15.395425   -4.403134   20.434917 
C   -14.638883   -4.841479   21.525899 
C   -13.450979   -3.873771   21.725906 
C   -13.528319   -3.191554   23.078014 
C   -14.998654   -5.970258   22.235868 
C   -14.443375   -6.608688   23.333627 
C   -14.933100   -7.808545   24.016210 
C   -13.783444   -7.758061   24.923651 
C   -13.287719   -6.529646   24.257434 
C   -13.462992   -8.646157   25.936945 
O   -12.333016   -5.767556   24.412993 
C   -12.422614   -8.698130   26.845444 
N   -12.334845   -9.729294   27.783850 
C   -11.194116   -9.563766   28.600165 
C   -10.489900   -8.385263   28.204859 
C   -11.223687   -7.743602   27.043413 
C   -10.722812  -10.352471   29.648710 
C    -9.546885   -9.954510   30.291944 
C    -8.851682   -8.800750   29.912783 
C    -9.335166   -8.004962   28.853719 
C   -13.271229  -10.802773   27.910430 
C   -16.578170   -5.043749   19.949641 
C   -16.016952   -8.627426   23.874781 
C   -10.333978   -7.729998   25.815093 
C   -17.005544   -8.422525   22.883048 
N   -17.840206   -8.285769   22.080990 
C   -16.244410   -9.745691   24.711787 
N   -16.466441  -10.673762   25.381201 
C   -11.693925   -6.354220   27.427547 
C   -12.129595   -4.588548   21.518446
C    -5.841525    4.878759   34.800183 
C    -4.573797    5.332864   35.181478 
C    -3.462805    4.484340   35.207820 
C    -3.647641    3.153720   34.836071 
C    -4.935935    2.682951   34.437274 
C    -6.021070    3.532492   34.420912 
N    -2.716440    2.091977   34.774906 
C    -3.339984    0.914383   34.361560 
C    -4.829690    1.213564   34.078482 
C    -5.147109    1.020084   32.607493 
C    -2.636955   -0.274326   34.273349 
C    -3.002361   -1.554184   33.896320 
C    -2.179513   -2.767923   33.918041 
C    -3.317767   -3.545060   33.426369 
C    -4.156961   -2.327365   33.373510 
C    -3.381588   -4.913949   33.207499 
O    -5.309905   -2.060925   33.032916 
C    -4.354022   -5.730441   32.668713 
N    -4.160852   -7.112840   32.561505 
C    -5.257573   -7.718158   31.912287 
C    -6.234156   -6.724803   31.592939 
C    -5.740600   -5.378276   32.085413 
C    -5.474173   -9.055406   31.581657 
C    -6.665952   -9.385923   30.929765 
C    -7.623399   -8.418342   30.605521 
C    -7.400926   -7.067905   30.945248 
C    -2.982476   -7.806822   32.978285 
C    -1.336288    2.206524   35.132797 
C    -0.884783   -3.051400   34.247623 
C    -6.666094   -4.862492   33.171879 
C     0.016026   -2.068714   34.722281 
N     0.785749   -1.287572   35.117354 
C    -0.336912   -4.351422   34.135456 
N     0.149220   -5.407472   34.051723 
C    -5.731777    0.388050   34.974227 
C    -5.617752   -4.406299   30.929140 
C    -6.981314    5.792818   34.799305 
C    -6.843851    7.094276   34.304323 
C    -7.911138    7.997132   34.295902
C    -9.137047    7.568064   34.804319 
C    -9.285912    6.240012   35.311546 
C    -8.224495    5.361761   35.306800 
N   -10.358993    8.260422   34.923104 
C   -11.335021    7.442139   35.509525 
C   -10.710598    6.059266   35.798228 
C   -10.715541    5.758788   37.284592 
C   -12.609141    7.910159   35.744345 
C   -13.741145    7.327736   36.301642 
C   -15.047016    7.945119   36.527043 
C   -15.538388    6.689017   37.107126 
C   -14.215675    6.050782   36.873662 
C   -16.792498    6.426679   37.622634 
O   -13.737318    4.933596   37.072653 
C   -17.358464    5.294373   38.188022 
N   -18.675882    5.296666   38.638922 
C   -19.024569    4.031572   39.170207 
C   -17.904414    3.150535   39.073936 
C   -16.748737    3.895855   38.436498 
C   -20.228498    3.597944   39.722901 
C   -20.298231    2.275104   40.177171 
C   -19.207710    1.415285   40.084076 
C   -17.995852    1.850383   39.528272
C   -19.562548    6.417915   38.578101 
C   -10.566176    9.615714   34.519527 
C   -15.591529    9.176264   36.295927 
C   -16.362127    3.233465   37.128267 
C   -14.861957   10.235872   35.706301 
N   -14.294068   11.132334   35.224160 
C   -16.930302    9.494511   36.626184 
N   -18.027124    9.794153   36.883173 
C   -15.586104    3.977094   39.406894 
C   -11.399370    4.975179   34.991704 
