576
Reordered Structure 8-1-2-4-3-5-6-7
C     3.399921  -14.183151  -10.161736 
C     3.335741  -15.560649  -10.350334 
C     4.110692  -16.441228   -9.585373 
C     4.955155  -15.892742   -8.621521 
C     5.022458  -14.479305   -8.426811 
C     4.249316  -13.630060   -9.192469 
N     5.837299  -16.535028   -7.719594 
C     6.494743  -15.599621   -6.924649 
C     6.017830  -14.184085   -7.322475 
C     5.319208  -13.502076   -6.162095 
C     7.410060  -15.995036   -5.961455 
C     8.182576  -15.290917   -5.058671 
C     9.132250  -15.825777   -4.075064 
C     9.466740  -14.464178   -3.660899 
C     8.498951  -13.903729   -4.626653 
C    10.399929  -14.068677   -2.710303 
O     8.105575  -12.779698   -4.940145 
C    10.787178  -12.834458   -2.236336 
N    11.777061  -12.714695   -1.250732 
C    11.989907  -11.360332   -0.923155 
C    11.125439  -10.534784   -1.706873 
C    10.293540  -11.420456   -2.613964 
C    12.871522  -10.789424   -0.005479 
C    12.880633   -9.396987    0.118402 
C    12.035984   -8.581901   -0.643266 
C    11.144986   -9.164212   -1.568448 
C    12.463238  -13.813272   -0.646636 
C     6.019014  -17.951955   -7.640383 
C     9.525797  -17.078648   -3.699430 
C    10.603763  -11.107094   -4.065225 
C    10.481853  -17.305623   -2.681033 
N    11.263919  -17.532473   -1.847060 
C     9.006558  -18.253430   -4.293463 
N     8.601767  -19.243176   -4.757570 
C     8.820741  -11.255176   -2.293554 
C     7.167225  -13.358727   -7.868090 
C     0.000000    0.000000    0.000000 
C     0.000000    1.399246    0.000000 
C     1.187484    2.137232    0.000000 
C     2.393688    1.437487   -0.004858 
C     2.402730    0.008471   -0.009308 
C     1.222633   -0.702733   -0.003513 
N     3.719761    1.919351   -0.009599 
C     4.630557    0.856449   -0.010879 
C     3.841003   -0.471324   -0.027371 
C     4.108766   -1.243896   -1.305122 
C     5.991386    1.083277    0.007440 
C     7.088069    0.233294    0.008385 
C     8.504704    0.596794    0.066087 
C     8.868868   -0.822340    0.000661 
C     7.435409   -1.204078   -0.052251 
C    10.137510   -1.374219    0.003445 
O     6.810950   -2.263547   -0.115937 
C    10.594801   -2.677092   -0.088028 
N    11.959533   -2.965966   -0.056893 
C    12.177936   -4.355877   -0.191934 
C    10.922893   -5.027317   -0.311558 
C     9.810091   -3.999828   -0.240555 
C    13.371747   -5.075037   -0.217683
C    13.297895   -6.463576   -0.364466 
C    12.073144   -7.129799   -0.486460 
C    10.868888   -6.396491   -0.459160 
C    13.000486   -1.993411    0.071809 
C     4.079293    3.302857    0.013055 
C     9.201203    1.768714    0.148797 
C     8.946527   -4.259035    0.979313 
C    10.615232    1.817125    0.179606 
N    11.777801    1.897625    0.206042 
C     8.566350    3.031979    0.211541 
N     8.079983    4.089821    0.266693 
C     4.132468   -1.293690    1.212481 
C     9.006954   -4.010721   -1.526408 
C    -1.260876   -0.738305    0.001175 
C    -2.318387   -0.331043   -0.819828 
C    -3.535631   -1.018308   -0.850818 
C    -3.677533   -2.135125   -0.028535 
C    -2.605899   -2.553938    0.818429 
C    -1.411004   -1.867540    0.832391 
N    -4.779199   -3.003314    0.138073 
C    -4.479747   -4.006494    1.063085 
C    -3.049961   -3.774210    1.601334 
C    -3.078601   -3.449957    3.083267 
C    -5.391524   -5.002931    1.356426 
C    -5.352644   -6.089327    2.214704 
C    -6.365384   -7.134158    2.387714 
C    -5.524889   -7.777463    3.400051 
C    -4.495221   -6.723391    3.244962 
C    -5.780113   -8.948177    4.096718 
O    -3.401687   -6.476516    3.754388 
C    -5.103579   -9.604684    5.106038 
N    -5.589301  -10.801206    5.641845 
C    -4.757754  -11.249867    6.690930 
C    -3.669423  -10.339956    6.862155 
C    -3.796131   -9.228449    5.838535 
C    -4.870324  -12.379905    7.499826 
C    -3.891353  -12.588312    8.475993 
C    -2.826517  -11.698435    8.655518 
C    -2.717300  -10.557309    7.834441 
C    -6.789450  -11.456568    5.223674 
C    -6.012711   -2.891088   -0.576774 
C    -7.587297   -7.396725    1.836885 
C    -2.614518   -9.272261    4.887561 
C    -8.379735   -8.501957    2.228365 
N    -9.061584   -9.398968    2.526907 
C    -8.162499   -6.584532    0.830856 
N    -8.667088   -5.941382   -0.000084 
C    -3.924768   -7.886587    6.531436 
C    -2.150756   -4.953935    1.289445 
C    -1.825581  -11.947515    9.690543 
C    -1.304816  -13.233418    9.872938 
C    -0.343784  -13.508288   10.850491 
C     0.087885  -12.456621   11.657721 
C    -0.443535  -11.141815   11.482998 
C    -1.385077  -10.887463   10.509380 
N     1.031225  -12.450105   12.708293 
C     1.163741  -11.165341   13.242934 
C     0.191410  -10.218387   12.504453 
C    -0.871909   -9.693084   13.450785 
C     2.063592  -10.903833   14.257809 
C     2.386933   -9.750178   14.954157 
C     3.420963   -9.580191   15.977869 
C     3.029948   -8.176835   16.135455 
C     1.984074   -8.331187   15.096395 
C     3.574793   -7.235246   16.993114 
O     1.144976   -7.596046   14.574882 
C     3.267632   -5.913357   17.253346 
N     3.999205   -5.172990   18.185742 
C     3.482729   -3.863465   18.296858 
C     2.371957   -3.709753   17.411389
C     2.160828   -5.011299   16.662379 
C     3.902376   -2.802744   19.098553 
C     3.205943   -1.594249   19.004528 
C     2.114511   -1.436030   18.143033 
C     1.691627   -2.513286   17.337789 
C     5.102639   -5.674755   18.944652 
C     1.780330  -13.592761   13.130357 
C     4.361942  -10.391329   16.545037 
C     2.380174   -4.790960   15.177486 
C     4.529706  -11.745541   16.169623 
N     4.699712  -12.863108   15.885375 
C     5.249065   -9.944549   17.553137 
N     5.995258   -9.614073   18.385389 
C     0.784409   -5.571493   16.961861 
C     0.941784   -9.100611   11.807973 
C   -12.641407    0.254478   18.823456 
C   -13.325545    1.433365   18.505846 
C   -12.650913    2.606643   18.155724 
C   -11.257411    2.575594   18.125202 
C   -10.550358    1.374892   18.441406 
C   -11.231982    0.228581   18.789219 
N   -10.336419    3.598992   17.811626 
C    -9.024268    3.131331   17.923790 
C    -9.062226    1.635606   18.310142 
C    -8.487016    0.778080   17.198356 
C    -7.947537    3.971649   17.715803 
C    -6.576974    3.774382   17.760429 
C    -5.521458    4.778288   17.603658 
C    -4.507795    3.735500   17.780247 
C    -5.563462    2.706566   17.933466 
C    -3.130431    3.885715   17.789900 
O    -5.588134    1.489655   18.120084 
C    -2.087904    2.984488   17.885572 
N    -0.758543    3.416128   17.875706 
C     0.122364    2.314419   17.936313 
C    -0.630437    1.101632   18.000977 
C    -2.107928    1.443449   17.998124 
C     1.516279    2.285233   17.943264 
C     2.145630    1.039054   18.014745 
C     1.416553   -0.154113   18.071571 
C     0.007120   -0.118867   18.062595 
C    -0.342122    4.780251   17.771583 
C   -10.701040    4.940685   17.476770 
C    -5.493882    6.125879   17.383357 
C    -2.737225    1.007570   19.308228 
C    -6.669119    6.906385   17.271769 
N    -7.613856    7.582561   17.177214 
C    -4.287634    6.853508   17.247823 
N    -3.315864    7.485942   17.127867 
C    -8.366612    1.396030   19.635343 
C    -2.792250    0.817569   16.799250 
C   -13.384535   -0.948201   19.192907 
C   -14.531838   -1.314380   18.480095 
C   -15.274015   -2.452206   18.810204 
C   -14.841832   -3.225926   19.886608 
C   -13.671033   -2.860335   20.619531 
C   -12.948291   -1.738172   20.276443 
N   -15.395425   -4.403134   20.434917 
C   -14.638883   -4.841479   21.525899 
C   -13.450979   -3.873771   21.725906 
C   -13.528319   -3.191554   23.078014 
C   -14.998654   -5.970258   22.235868 
C   -14.443375   -6.608688   23.333627 
C   -14.933100   -7.808545   24.016210 
C   -13.783444   -7.758061   24.923651 
C   -13.287719   -6.529646   24.257434 
C   -13.462992   -8.646157   25.936945 
O   -12.333016   -5.767556   24.412993 
C   -12.422614   -8.698130   26.845444 
N   -12.334845   -9.729294   27.783850 
C   -11.194116   -9.563766   28.600165 
C   -10.489900   -8.385263   28.204859 
C   -11.223687   -7.743602   27.043413 
C   -10.722812  -10.352471   29.648710 
C    -9.546885   -9.954510   30.291944 
C    -8.851682   -8.800750   29.912783 
C    -9.335166   -8.004962   28.853719 
C   -13.271229  -10.802773   27.910430 
C   -16.578170   -5.043749   19.949641 
C   -16.016952   -8.627426   23.874781 
C   -10.333978   -7.729998   25.815093 
C   -17.005544   -8.422525   22.883048 
N   -17.840206   -8.285769   22.080990 
C   -16.244410   -9.745691   24.711787 
N   -16.466441  -10.673762   25.381201 
C   -11.693925   -6.354220   27.427547 
C   -12.129595   -4.588548   21.518446
C    -5.841525    4.878759   34.800183 
C    -4.573797    5.332864   35.181478 
C    -3.462805    4.484340   35.207820 
C    -3.647641    3.153720   34.836071 
C    -4.935935    2.682951   34.437274 
C    -6.021070    3.532492   34.420912 
N    -2.716440    2.091977   34.774906 
C    -3.339984    0.914383   34.361560 
C    -4.829690    1.213564   34.078482 
C    -5.147109    1.020084   32.607493 
C    -2.636955   -0.274326   34.273349 
C    -3.002361   -1.554184   33.896320 
C    -2.179513   -2.767923   33.918041 
C    -3.317767   -3.545060   33.426369 
C    -4.156961   -2.327365   33.373510 
C    -3.381588   -4.913949   33.207499 
O    -5.309905   -2.060925   33.032916 
C    -4.354022   -5.730441   32.668713 
N    -4.160852   -7.112840   32.561505 
C    -5.257573   -7.718158   31.912287 
C    -6.234156   -6.724803   31.592939 
C    -5.740600   -5.378276   32.085413 
C    -5.474173   -9.055406   31.581657 
C    -6.665952   -9.385923   30.929765 
C    -7.623399   -8.418342   30.605521 
C    -7.400926   -7.067905   30.945248 
C    -2.982476   -7.806822   32.978285 
C    -1.336288    2.206524   35.132797 
C    -0.884783   -3.051400   34.247623 
C    -6.666094   -4.862492   33.171879 
C     0.016026   -2.068714   34.722281 
N     0.785749   -1.287572   35.117354 
C    -0.336912   -4.351422   34.135456 
N     0.149220   -5.407472   34.051723 
C    -5.731777    0.388050   34.974227 
C    -5.617752   -4.406299   30.929140 
C    -6.981314    5.792818   34.799305 
C    -6.843851    7.094276   34.304323 
C    -7.911138    7.997132   34.295902
C    -9.137047    7.568064   34.804319 
C    -9.285912    6.240012   35.311546 
C    -8.224495    5.361761   35.306800 
N   -10.358993    8.260422   34.923104 
C   -11.335021    7.442139   35.509525 
C   -10.710598    6.059266   35.798228 
C   -10.715541    5.758788   37.284592 
C   -12.609141    7.910159   35.744345 
C   -13.741145    7.327736   36.301642 
C   -15.047016    7.945119   36.527043 
C   -15.538388    6.689017   37.107126 
C   -14.215675    6.050782   36.873662 
C   -16.792498    6.426679   37.622634 
O   -13.737318    4.933596   37.072653 
C   -17.358464    5.294373   38.188022 
N   -18.675882    5.296666   38.638922 
C   -19.024569    4.031572   39.170207 
C   -17.904414    3.150535   39.073936 
C   -16.748737    3.895855   38.436498 
C   -20.228498    3.597944   39.722901 
C   -20.298231    2.275104   40.177171 
C   -19.207710    1.415285   40.084076 
C   -17.995852    1.850383   39.528272
C   -19.562548    6.417915   38.578101 
C   -10.566176    9.615714   34.519527 
C   -15.591529    9.176264   36.295927 
C   -16.362127    3.233465   37.128267 
C   -14.861957   10.235872   35.706301 
N   -14.294068   11.132334   35.224160 
C   -16.930302    9.494511   36.626184 
N   -18.027124    9.794153   36.883173 
C   -15.586104    3.977094   39.406894 
C   -11.399370    4.975179   34.991704 
 C       -18.700787        0.505521       40.994499
 C       -18.764969       -0.871976       40.805901
 C       -17.990017       -1.752559       41.570862
 C       -17.145554       -1.204068       42.534714
 C       -17.078251        0.209367       42.729424
 C       -17.851391        1.058611       41.963768
 N       -16.263411       -1.846357       43.436642
 C       -15.605965       -0.910949       44.231586
 C       -16.082878        0.504588       43.833759
 C       -16.781500        1.186596       44.994141
 C       -14.690648       -1.306363       45.194778
 C       -13.918133       -0.602244       46.097565
 C       -12.968458       -1.137105       47.081169
 C       -12.633968        0.224494       47.495335
 C       -13.601757        0.784943       46.529579
 C       -11.700779        0.619996       48.445930
 O       -13.995134        1.908973       46.216087
 C       -11.313530        1.854213       48.919899
 N       -10.323647        1.973976       49.905502
 C       -10.110802        3.328340       50.233078
 C       -10.975269        4.153889       49.449364
 C       -11.807169        3.268216       48.542271
 C        -9.229187        3.899248       51.150757
 C        -9.220076        5.291686       51.274635
 C       -10.064724        6.106772       50.512970
 C       -10.955723        5.524461       49.587788
 C        -9.637470        0.875399       50.509598
 C       -16.081696       -3.263285       43.515854
 C       -12.574911       -2.389973       47.456802
 C       -11.496946        3.581579       47.091011
 C       -11.618856       -2.616948       48.475201
 N       -10.836790       -2.843803       49.309174
 C       -13.094151       -3.564755       46.862770
 N       -13.498942       -4.554503       46.398666
 C       -13.279968        3.433496       48.862679
 C       -14.933485        1.329944       43.288147
 C       -22.100708       14.688675       51.156235
 C       -22.100708       16.087921       51.156235
 C       -20.913223       16.825897       51.156235
 C       -19.707020       16.126160       51.151375
 C       -19.697979       14.697144       51.146927
 C       -20.878075       13.985935       51.152721
 N       -18.380947       16.608017       51.146637
 C       -17.470152       15.545126       51.145355
 C       -18.259705       14.217348       51.128864
 C       -17.991943       13.444778       49.851112
 C       -16.109322       15.771952       51.163673
 C       -15.012638       14.921967       51.164619
 C       -13.596004       15.285475       51.222321
 C       -13.231840       13.866329       51.156895
 C       -14.665300       13.484596       51.103985
 C       -11.963198       13.314453       51.159679
 O       -15.289759       12.425127       51.040298
 C       -11.505907       12.011583       51.068207
 N       -10.141176       11.722708       51.099342
 C        -9.922773       10.332798       50.964302
 C       -11.177815        9.661352       50.844677
 C       -12.290617       10.688847       50.915680
 C        -8.728962        9.613634       50.938553
 C        -8.802813        8.225097       50.791771
 C       -10.027565        7.558872       50.669777
 C       -11.231821        8.292182       50.697075
 C        -9.100222       12.695263       51.228043
 C       -18.021416       17.991524       51.169289
 C       -12.899506       16.457386       51.305031
 C       -13.154182       10.429640       52.135548
 C       -11.485476       16.505791       51.335838
 N       -10.322907       16.586288       51.362278
 C       -13.534359       17.720646       51.367775
 N       -14.020725       18.778488       51.422928
 C       -17.968239       13.394981       52.368713
 C       -13.093754       10.677952       49.629826
 C       -23.361584       13.950363       51.157410
 C       -24.419094       14.357632       50.336407
 C       -25.636337       13.670362       50.305416
 C       -25.778240       12.553549       51.127701
 C       -24.706608       12.134735       51.974663
 C       -23.511711       12.821133       51.988625
 N       -26.879906       11.685362       51.294308
 C       -26.580456       10.682178       52.219322
 C       -25.150669       10.914463       52.757568
 C       -25.179310       11.238718       54.239502
 C       -27.492229        9.685740       52.512661
 C       -27.453350        8.599348       53.370941
 C       -28.466091        7.554512       53.543949
 C       -27.625595        6.911211       54.556286
 C       -26.595928        7.965280       54.401196
 C       -27.880821        5.740497       55.252953
 O       -25.502396        8.212157       54.910622
 C       -27.204285        5.083989       56.262272
 N       -27.690010        3.887465       56.798080
 C       -26.858459        3.438805       57.847164
 C       -25.770130        4.348717       58.018391
 C       -25.896839        5.460225       56.994770
 C       -26.971031        2.308767       58.656059
 C       -25.992062        2.100359       59.632229
 C       -24.927223        2.990236       59.811752
 C       -24.818008        4.131363       58.990677
 C       -28.890160        3.232103       56.379910
 C       -28.113419       11.797588       50.579460
 C       -29.688007        7.291947       52.993118
 C       -24.715225        5.416412       56.043797
 C       -30.480446        6.186718       53.384598
 N       -31.162275        5.289706       53.683144
 C       -30.263210        8.104139       51.987091
 N       -30.767796        8.747292       51.156151
 C       -26.025475        6.802087       57.687672
 C       -24.251465        9.734735       52.445679
 C       -23.926289        2.741158       60.846779
 C       -23.405525        1.455253       61.029171
 C       -22.444492        1.180384       62.006725
 C       -22.012823        2.232050       62.813953
 C       -22.544243        3.546857       62.639225
 C       -23.485786        3.801209       61.665615
 N       -21.069483        2.238567       63.864475
 C       -20.936966        3.523330       64.399170
 C       -21.909298        4.470285       63.660660
 C       -22.972618        4.995588       64.607010
 C       -20.037117        3.784839       65.414032
 C       -19.713776        4.938495       66.110382
 C       -18.679745        5.108482       67.134094
 C       -19.070761        6.511838       67.291687
 C       -20.116634        6.357486       66.252625
 C       -18.525915        7.453425       68.149338
 O       -20.955732        7.092627       65.731110
 C       -18.833076        8.775316       68.409576
 N       -18.101503        9.515682       69.341980
 C       -18.617981       10.825207       69.453094
 C       -19.728752       10.978920       68.567612
 C       -19.939880        9.677372       67.818604
 C       -18.198334       11.885931       70.254776
 C       -18.894766       13.094425       70.160751
 C       -19.986198       13.252644       69.299271
 C       -20.409081       12.175390       68.494019
 C       -16.998070        9.013918       70.100876
 C       -20.320377        1.095911       64.286591
 C       -17.738768        4.297344       67.701263
 C       -19.720535        9.897715       66.333710
 C       -17.571003        2.943130       67.325851
 N       -17.400997        1.825563       67.041595
 C       -16.851643        4.744123       68.709366
 N       -16.105450        5.074601       69.541611
 C       -21.316299        9.117178       68.118088
 C       -21.158924        5.588062       62.964207
 C       -34.742043       14.943153       69.979691
 C       -35.426186       16.122040       69.662079
 C       -34.751549       17.295311       69.311951
 C       -33.358047       17.264259       69.281433
 C       -32.650993       16.063564       69.597641
 C       -33.332619       14.917255       69.945450
 N       -32.437057       18.287659       68.967865
 C       -31.124962       17.820000       69.080017
 C       -31.162916       16.324276       69.466370
 C       -30.587727       15.466757       68.354584
 C       -30.048244       18.660316       68.872040
 C       -28.677685       18.463051       68.916656
 C       -27.622166       19.466957       68.759888
 C       -26.608501       18.424168       68.936478
 C       -27.664169       17.395233       69.089706
 C       -25.231140       18.574383       68.946136
 O       -27.688843       16.178326       69.276321
 C       -24.188610       17.673157       69.041809
 N       -22.859249       18.104794       69.031937
 C       -21.978344       17.003086       69.092545
 C       -22.731144       15.790308       69.157211
 C       -24.208637       16.132118       69.154358
 C       -20.584431       16.973900       69.099503
 C       -19.955078       15.727728       69.170975
 C       -20.684155       14.534561       69.227798
 C       -22.093588       14.569805       69.218826
 C       -22.442831       19.468918       68.927811
 C       -32.801682       19.629353       68.632996
 C       -27.594589       20.814548       68.539581
 C       -24.837933       15.696245       70.464462
 C       -28.769829       21.595055       68.427994
 N       -29.714565       22.271233       68.333435
 C       -26.388340       21.542175       68.404053
 N       -25.416573       22.174614       68.284088
 C       -30.467323       16.084705       70.791580
 C       -24.892956       15.506243       67.955475
 C       -35.485176       13.740473       70.349136
 C       -36.632477       13.374294       69.636322
 C       -37.374657       12.236471       69.966431
 C       -36.942467       11.462751       71.042831
 C       -35.771675       11.828342       71.775772
 C       -35.048927       12.950500       71.432678
 N       -37.496056       10.285538       71.591156
 C       -36.739517        9.847197       72.682129
 C       -35.551620       10.814903       72.882141
 C       -35.628960       11.497122       74.234253
 C       -37.099297        8.718414       73.392090
 C       -36.544014        8.079982       74.489853
 C       -37.033737        6.880128       75.172440
 C       -35.884087        6.930613       76.079880
 C       -35.388359        8.159025       75.413666
 C       -35.563629        6.042516       77.093170
 O       -34.433655        8.921116       75.569229
 C       -34.523254        5.990544       78.001678
 N       -34.435486        4.959380       78.940079
 C       -33.294754        5.124907       79.756393
 C       -32.590538        6.303411       79.361084
 C       -33.324326        6.945072       78.199646
 C       -32.823448        4.336201       80.804947
 C       -31.647572        4.734163       81.448181
 C       -30.952393        5.887924       81.069016
 C       -31.435854        6.683712       80.009949
 C       -35.371864        3.885898       79.066666
 C       -38.678802        9.644922       71.105865
 C       -38.117584        6.061248       75.031006
 C       -32.434616        6.958675       76.971313
 C       -39.106178        6.266149       74.039276
 N       -39.940842        6.402904       73.237213
 C       -38.345047        4.942983       75.868011
 N       -38.567078        4.014909       76.537430
 C       -33.794563        8.334454       78.583771
 C       -34.230232       10.100124       72.674667
 C       -27.942234       19.567429       85.956406
 C       -26.674503       20.021534       86.337708
 C       -25.563511       19.173008       86.364044
 C       -25.748348       17.842388       85.992294
 C       -27.036644       17.371616       85.593506
 C       -28.121777       18.221157       85.577148
 N       -24.817146       16.780643       85.931137
 C       -25.440693       15.603060       85.517792
 C       -26.930397       15.902239       85.234711
 C       -27.247818       15.708757       83.763733
 C       -24.737663       14.414349       85.429581
 C       -25.103069       13.134491       85.052551
 C       -24.280220       11.920752       85.074265
 C       -25.418476       11.143614       84.582596
 C       -26.257668       12.361311       84.529739
 C       -25.482296        9.774721       84.363724
 O       -27.410614       12.627747       84.189148
 C       -26.454731        8.958231       83.824951
 N       -26.261559        7.575830       83.717743
 C       -27.358280        6.970516       83.068512
 C       -28.334866        7.963866       82.749176
 C       -27.841309        9.310396       83.241638
 C       -27.574879        5.633266       82.737885
 C       -28.766663        5.302751       82.085999
 C       -29.724110        6.270331       81.761749
 C       -29.501637        7.620765       82.101471
 C       -25.083183        6.881853       84.134521
 C       -23.436996       16.895191       86.289032
 C       -22.985489       11.637274       85.403854
 C       -28.766804        9.826178       84.328110
 C       -22.084682       12.619961       85.878510
 N       -21.314960       13.401100       86.273590
 C       -22.437620       10.337250       85.291687
 N       -21.951488        9.281200       85.207947
 C       -27.832485       15.076725       86.130463
 C       -27.718460       10.282375       82.085373
 C       -29.082024       20.481487       85.955536
 C       -28.944561       21.782948       85.460556
 C       -30.011848       22.685802       85.452133
 C       -31.237736       22.256737       85.960541
 C       -31.386600       20.928680       86.467773
 C       -30.325203       20.050430       86.463028
 N       -32.459633       22.949093       86.079330
 C       -33.435661       22.130810       86.665756
 C       -32.811234       20.747936       86.954453
 C       -32.816177       20.447456       88.440826
 C       -34.709778       22.598831       86.900574
 C       -35.841782       22.016407       87.457886
 C       -37.147652       22.633793       87.683273
 C       -37.639023       21.377686       88.263367
 C       -36.316315       20.739452       88.029892
 C       -38.893135       21.115349       88.778870
 O       -35.837959       19.622265       88.228897
 C       -39.459099       19.983040       89.344254
 N       -40.776520       19.985336       89.795166
 C       -41.125206       18.720242       90.326447
 C       -40.005051       17.839203       90.230179
 C       -38.849373       18.584522       89.592728
 C       -42.329132       18.286610       90.879135
 C       -42.398865       16.963772       91.333405
 C       -41.308342       16.103958       91.240311
 C       -40.096489       16.539047       90.684509
 C       -41.663185       21.106583       89.734344
 C       -32.666817       24.304386       85.675751
 C       -37.692162       23.864937       87.452164
 C       -38.462761       17.922134       88.284500
 C       -36.962593       24.924545       86.862534
 N       -36.394707       25.821007       86.380386
 C       -39.030937       24.183182       87.782425
 N       -40.127762       24.482826       88.039413
 C       -37.686737       18.665764       90.563126
 C       -33.500008       19.663849       86.147934
