         288
 rotation by   0.0000000000000000        0.0000000000000000        0.0000000000000000        0.0000000000000000        0.0000000000000000        0.0000000000000000        0.0000000000000000     
 C        3.3999210000000000       -14.183151000000002       -10.161735999999998     
 C        3.3357409999999996       -15.560649000000002       -10.350333999999997     
 C        4.1106920000000011       -16.441227999999999       -9.5853729999999970     
 C        4.9551549999999986       -15.892742000000002       -8.6215210000000084     
 C        5.0224580000000012       -14.479305000000000       -8.4268110000000078     
 C        4.2493160000000012       -13.630060000000000       -9.1924689999999956     
 C        5.8372989999999989       -16.535028000000001       -7.7195940000000078     
 C        6.4947430000000006       -15.599621000000003       -6.9246489999999952     
 C        6.0178299999999973       -14.184085000000000       -7.3224750000000043     
 C        5.3192079999999970       -13.502076000000002       -6.1620950000000008     
 C        7.4100600000000059       -15.995036000000002       -5.9614550000000079     
 C        8.1825760000000010       -15.290917000000000       -5.0586709999999968     
 C        9.1322500000000026       -15.825777000000002       -4.0750640000000047     
 C        9.4667400000000050       -14.464178000000000       -3.6608990000000077     
 C        8.4989510000000017       -13.903729000000002       -4.6266529999999975     
 C        10.399929000000004       -14.068677000000001       -2.7103030000000032     
 C        8.1055750000000053       -12.779698000000000       -4.9401450000000082     
 C        10.787178000000001       -12.834458000000001       -2.2363360000000014     
 C        11.777061000000000       -12.714695000000003       -1.2507319999999993     
 C        11.989907000000006       -11.360332000000000      -0.92315500000000128     
 C        11.125439000000004       -10.534784000000002       -1.7068729999999945     
 C        10.293540000000004       -11.420456000000001       -2.6139640000000028     
 C        12.871522000000002       -10.789424000000000       -5.4790000000011219E-003
 C        12.880633000000000       -9.3969869999999993       0.11840199999999612     
 C        12.035984000000003       -8.5819010000000020      -0.64326600000000411     
 C        11.144985999999999       -9.1642119999999991       -1.5684479999999965     
 C        12.463238000000000       -13.813272000000001      -0.64663600000000088     
 C        6.0190139999999994       -17.951955000000002       -7.6403830000000070     
 C        9.5257970000000007       -17.078648000000001       -3.6994299999999996     
 C        10.603763000000004       -11.107094000000000       -4.0652250000000052     
 C        10.481853000000005       -17.305623000000001       -2.6810330000000064     
 C        11.263919000000005       -17.532473000000000       -1.8470599999999990     
 C        9.0065580000000018       -18.253430000000002       -4.2934629999999956     
 C        8.6017670000000059       -19.243175999999998       -4.7575700000000083     
 C        8.8207410000000017       -11.255176000000002       -2.2935540000000074     
 C        7.1672250000000064       -13.358727000000002       -7.8680900000000022     
 C        0.0000000000000000        0.0000000000000000        0.0000000000000000     
 C        0.0000000000000000        1.3992459999999998        0.0000000000000000     
 C        1.1874839999999995        2.1372320000000009        0.0000000000000000     
 C        2.3936879999999983        1.4374870000000008       -4.8580000000058021E-003
 C        2.4027299999999991        8.4710000000001173E-003  -9.3079999999972074E-003
 C        1.2226330000000001      -0.70273300000000027       -3.5130000000052064E-003
 C        3.7197609999999992        1.9193510000000007       -9.5990000000014675E-003
 C        4.6305569999999969       0.85644899999999957       -1.0878999999995642E-002
 C        3.8410029999999979      -0.47132399999999919       -2.7370999999995149E-002
 C        4.1087660000000001       -1.2438959999999994       -1.3051220000000043     
 C        5.9913859999999994        1.0832770000000007        7.4399999999954503E-003
 C        7.0880689999999982       0.23329400000000078        8.3849999999969782E-003
 C        8.5047040000000003       0.59679399999999916        6.6087000000003115E-002
 C        8.8688680000000026      -0.82234000000000052        6.6100000000091086E-004
 C        7.4354090000000044       -1.2040779999999991       -5.2251000000005376E-002
 C        10.137510000000002       -1.3742190000000001        3.4449999999992542E-003
 C        6.8109499999999992       -2.2635469999999991      -0.11593699999999529     
 C        10.594801000000000       -2.6770920000000000       -8.8028000000001327E-002
 C        11.959533000000004       -2.9659659999999999       -5.6892999999995197E-002
 C        12.177936000000006       -4.3558770000000004      -0.19193399999999627     
 C        10.922893000000006       -5.0273169999999991      -0.31155799999999800     
 C        9.8100910000000034       -3.9998279999999999      -0.24055500000000052     
 C        13.371747000000003       -5.0750370000000009      -0.21768300000000096     
 C        13.297895000000000       -6.4635759999999989      -0.36446600000000018     
 C        12.073144000000003       -7.1297990000000011      -0.48646000000000100     
 C        10.868888000000002       -6.3964910000000001      -0.45916000000000423     
 C        13.000486000000006       -1.9934110000000000        7.1808999999994683E-002
 C        4.0792930000000007        3.3028569999999995        1.3055000000001371E-002
 C        9.2012030000000031        1.7687139999999992       0.14879699999999474     
 C        8.9465269999999997       -4.2590349999999999       0.97931299999999766     
 C        10.615232000000002        1.8171250000000008       0.17960599999999971     
 C        11.777801000000000        1.8976249999999997       0.20604200000000361     
 C        8.5663500000000035        3.0319789999999998       0.21154100000000398     
 C        8.0799830000000021        4.0898210000000006       0.26669299999999652     
 C        4.1324680000000003       -1.2936899999999998        1.2124810000000039     
 C        9.0069540000000039       -4.0107209999999993       -1.5264079999999964     
 C       -1.2608759999999997      -0.73830500000000043        1.1749999999963734E-003
 C       -2.3183869999999995      -0.33104299999999931      -0.81982799999999401     
 C       -3.5356310000000004       -1.0183079999999993      -0.85081799999999674     
 C       -3.6775330000000004       -2.1351250000000004       -2.8534999999997979E-002
 C       -2.6058989999999991       -2.5539380000000005       0.81842900000000185     
 C       -1.4110040000000001       -1.8675400000000000       0.83239100000000121     
 C       -4.7791990000000002       -3.0033139999999996       0.13807299999999856     
 C       -4.4797469999999997       -4.0064939999999991        1.0630850000000009     
 C       -3.0499609999999997       -3.7742099999999992        1.6013340000000014     
 C       -3.0786009999999990       -3.4499570000000004        3.0832669999999993     
 C       -5.3915240000000004       -5.0029309999999994        1.3564259999999990     
 C       -5.3526439999999997       -6.0893269999999999        2.2147039999999976     
 C       -6.3653839999999988       -7.1341580000000002        2.3877139999999955     
 C       -5.5248889999999999       -7.7774630000000000        3.4000510000000013     
 C       -4.4952209999999990       -6.7233910000000003        3.2449620000000010     
 C       -5.7801130000000001       -8.9481770000000012        4.0967179999999992     
 C       -3.4016869999999990       -6.4765159999999993        3.7543880000000023     
 C       -5.1035789999999999       -9.6046840000000024        5.1060380000000016     
 C       -5.5893009999999990       -10.801206000000001        5.6418450000000000     
 C       -4.7577540000000003       -11.249867000000002        6.6909299999999980     
 C       -3.6694230000000001       -10.339956000000001        6.8621549999999978     
 C       -3.7961309999999990       -9.2284490000000012        5.8385350000000003     
 C       -4.8703240000000001       -12.379905000000001        7.4998259999999988     
 C       -3.8913530000000005       -12.588312000000002        8.4759929999999990     
 C       -2.8265169999999991       -11.698435000000000        8.6555180000000007     
 C       -2.7172999999999998       -10.557309000000000        7.8344410000000018     
 C       -6.7894500000000004       -11.456568000000001        5.2236739999999990     
 C       -6.0127109999999995       -2.8910879999999999      -0.57677400000000034     
 C       -7.5872969999999995       -7.3967249999999991        1.8368850000000023     
 C       -2.6145180000000003       -9.2722610000000003        4.8875610000000016     
 C       -8.3797350000000002       -8.5019570000000009        2.2283650000000037     
 C       -9.0615839999999999       -9.3989680000000000        2.5269070000000013     
 C       -8.1624990000000004       -6.5845320000000003       0.83085600000000426     
 C       -8.6670879999999997       -5.9413819999999999       -8.3999999993977781E-005
 C       -3.9247680000000003       -7.8865869999999996        6.5314359999999994     
 C       -2.1507559999999994       -4.9539350000000004        1.2894450000000006     
 C       -1.8255809999999997       -11.947514999999999        9.6905430000000017     
 C       -1.3048160000000006       -13.233418000000000        9.8729380000000013     
 C      -0.34378399999999942       -13.508288000000000        10.850491000000002     
 C        8.7884999999999991E-002  -12.456621000000002        11.657720999999999     
 C      -0.44353500000000068       -11.141815000000001        11.482997999999998     
 C       -1.3850770000000008       -10.887463000000000        10.509380000000000     
 C        1.0312250000000009       -12.450105000000001        12.708293000000001     
 C        1.1637409999999999       -11.165341000000002        13.242934000000002     
 C       0.19140999999999941       -10.218387000000000        12.504453000000002     
 C      -0.87190900000000049       -9.6930840000000025        13.450785000000000     
 C        2.0635919999999999       -10.903833000000002        14.257809000000002     
 C        2.3869330000000000       -9.7501780000000018        14.954157000000002     
 C        3.4209629999999978       -9.5801909999999992        15.977868999999998     
 C        3.0299479999999983       -8.1768350000000005        16.135455000000000     
 C        1.9840739999999997       -8.3311869999999999        15.096395000000001     
 C        3.5747930000000006       -7.2352459999999992        16.993113999999998     
 C        1.1449759999999998       -7.5960460000000003        14.574882000000002     
 C        3.2676319999999999       -5.9133570000000004        17.253346000000001     
 C        3.9992049999999972       -5.1729900000000013        18.185742000000001     
 C        3.4827290000000000       -3.8634650000000006        18.296858000000000     
 C        2.3719569999999992       -3.7097530000000001        17.411389000000000     
 C        2.1608279999999995       -5.0112990000000002        16.662379000000001     
 C        3.9023759999999976       -2.8027440000000006        19.098552999999999     
 C        3.2059429999999987       -1.5942489999999996        19.004528000000001     
 C        2.1145110000000003       -1.4360299999999997        18.143032999999999     
 C        1.6916270000000004       -2.5132859999999999        17.337789000000001     
 C        5.1026389999999973       -5.6747550000000002        18.944652000000001     
 C        1.7803299999999993       -13.592760999999999        13.130357000000000     
 C        4.3619420000000000       -10.391329000000002        16.545037000000001     
 C        2.3801740000000011       -4.7909600000000010        15.177486000000002     
 C        4.5297059999999982       -11.745540999999999        16.169623000000001     
 C        4.6997119999999990       -12.863108000000000        15.885375000000000     
 C        5.2490649999999990       -9.9445490000000021        17.553137000000000     
 C        5.9952580000000006       -9.6140730000000012        18.385389000000000     
 C       0.78440900000000013       -5.5714929999999994        16.961860999999999     
 C       0.94178400000000018       -9.1006110000000007        11.807973000000000     
 C       -12.641406999999999       0.25447800000000065        18.823456000000000     
 C       -13.325545000000000        1.4333650000000002        18.505845999999998     
 C       -12.650912999999999        2.6066430000000000        18.155723999999999     
 C       -11.257410999999999        2.5755939999999988        18.125202000000002     
 C       -10.550357999999999        1.3748919999999991        18.441406000000001     
 C       -11.231982000000000       0.22858100000000015        18.789218999999999     
 C       -10.336418999999999        3.5989919999999991        17.811626000000000     
 C       -9.0242679999999993        3.1313309999999994        17.923790000000000     
 C       -9.0622260000000008        1.6356059999999992        18.310141999999999     
 C       -8.4870160000000006       0.77807999999999922        17.198356000000000     
 C       -7.9475369999999996        3.9716489999999993        17.715803000000001     
 C       -6.5769739999999999        3.7743819999999992        17.760428999999998     
 C       -5.5214580000000000        4.7782879999999999        17.603657999999999     
 C       -4.5077949999999998        3.7355000000000000        17.780246999999999     
 C       -5.5634620000000004        2.7065659999999987        17.933465999999999     
 C       -3.1304309999999997        3.8857149999999994        17.789899999999999     
 C       -5.5881340000000002        1.4896549999999991        18.120083999999999     
 C       -2.0879040000000000        2.9844879999999989        17.885572000000000     
 C      -0.75854299999999952        3.4161280000000005        17.875706000000001     
 C       0.12236399999999925        2.3144190000000009        17.936312999999998     
 C      -0.63043700000000058        1.1016320000000004        18.000976999999999     
 C       -2.1079279999999994        1.4434489999999993        17.998124000000001     
 C        1.5162789999999990        2.2852329999999998        17.943263999999999     
 C        2.1456300000000006        1.0390540000000001        18.014745000000001     
 C        1.4165530000000004      -0.15411300000000061        18.071570999999999     
 C        7.1200000000004593E-003 -0.11886699999999983        18.062595000000002     
 C      -0.34212199999999982        4.7802509999999998        17.771583000000000     
 C       -10.701040000000001        4.9406850000000002        17.476769999999998     
 C       -5.4938820000000002        6.1258790000000012        17.383357000000000     
 C       -2.7372250000000005        1.0075699999999994        19.308228000000000     
 C       -6.6691190000000002        6.9063850000000002        17.271768999999999     
 C       -7.6138560000000002        7.5825609999999983        17.177213999999999     
 C       -4.2876339999999988        6.8535079999999997        17.247823000000000     
 C       -3.3158639999999995        7.4859420000000014        17.127866999999998     
 C       -8.3666119999999999        1.3960299999999997        19.635342999999999     
 C       -2.7922500000000010       0.81756900000000066        16.799250000000001     
 C       -13.384535000000000      -0.94820100000000007        19.192907000000002     
 C       -14.531838000000000       -1.3143799999999999        18.480094999999999     
 C       -15.274015000000002       -2.4522060000000003        18.810203999999999     
 C       -14.841832000000000       -3.2259260000000003        19.886607999999999     
 C       -13.671033000000000       -2.8603350000000001        20.619530999999998     
 C       -12.948290999999999       -1.7381720000000005        20.276443000000000     
 C       -15.395424999999999       -4.4031340000000005        20.434916999999999     
 C       -14.638883000000000       -4.8414789999999988        21.525898999999999     
 C       -13.450979000000000       -3.8737710000000005        21.725905999999998     
 C       -13.528319000000000       -3.1915539999999991        23.078014000000000     
 C       -14.998654000000002       -5.9702580000000003        22.235868000000000     
 C       -14.443375000000000       -6.6086879999999999        23.333627000000000     
 C       -14.933100000000000       -7.8085449999999996        24.016210000000001     
 C       -13.783443999999999       -7.7580610000000005        24.923651000000000     
 C       -13.287718999999999       -6.5296459999999987        24.257434000000000     
 C       -13.462992000000000       -8.6461570000000023        25.936945000000001     
 C       -12.333016000000001       -5.7675559999999999        24.412993000000000     
 C       -12.422613999999999       -8.6981300000000026        26.845444000000001     
 C       -12.334845000000000       -9.7292939999999994        27.783850000000001     
 C       -11.194115999999999       -9.5637660000000011        28.600165000000001     
 C       -10.489900000000000       -8.3852630000000019        28.204858999999999     
 C       -11.223687000000000       -7.7436020000000001        27.043413000000001     
 C       -10.722811999999999       -10.352471000000001        29.648710000000001     
 C       -9.5468849999999996       -9.9545100000000026        30.291944000000001     
 C       -8.8516820000000003       -8.8007500000000007        29.912783000000001     
 C       -9.3351659999999992       -8.0049620000000026        28.853719000000002     
 C       -13.271229000000000       -10.802773000000002        27.910430000000002     
 C       -16.578170000000000       -5.0437490000000009        19.949641000000000     
 C       -16.016952000000000       -8.6274259999999998        23.874780999999999     
 C       -10.333978000000000       -7.7299980000000010        25.815093000000001     
 C       -17.005544000000000       -8.4225250000000003        22.883047999999999     
 C       -17.840205999999998       -8.2857690000000019        22.080990000000000     
 C       -16.244409999999998       -9.7456910000000008        24.711787000000001     
 C       -16.466441000000000       -10.673762000000000        25.381201000000001     
 C       -11.693925000000000       -6.3542200000000006        27.427547000000001     
 C       -12.129595000000000       -4.5885480000000003        21.518446000000001     
 C       -5.8415249999999999        4.8787589999999996        34.800182999999997     
 C       -4.5737969999999999        5.3328639999999998        35.181477999999998     
 C       -3.4628049999999999        4.4843400000000004        35.207819999999998     
 C       -3.6476410000000001        3.1537199999999999        34.836070999999997     
 C       -4.9359349999999997        2.6829510000000001        34.437274000000002     
 C       -6.0210699999999999        3.5324920000000000        34.420912000000001     
 C       -2.7164400000000000        2.0919770000000000        34.774906000000001     
 C       -3.3399839999999998       0.91438299999999995        34.361559999999997     
 C       -4.8296900000000003        1.2135639999999999        34.078482000000001     
 C       -5.1471090000000004        1.0200839999999998        32.607492999999998     
 C       -2.6369549999999999      -0.27432600000000029        34.273349000000003     
 C       -3.0023610000000001       -1.5541840000000002        33.896320000000003     
 C       -2.1795130000000000       -2.7679230000000006        33.918041000000002     
 C       -3.3177669999999999       -3.5450600000000003        33.426369000000001     
 C       -4.1569609999999999       -2.3273649999999995        33.373510000000003     
 C       -3.3815879999999998       -4.9139489999999997        33.207498999999999     
 C       -5.3099049999999997       -2.0609250000000001        33.032916000000000     
 C       -4.3540219999999996       -5.7304409999999999        32.668712999999997     
 C       -4.1608520000000002       -7.1128400000000012        32.561504999999997     
 C       -5.2575729999999998       -7.7181579999999999        31.912286999999999     
 C       -6.2341559999999996       -6.7248030000000005        31.592939000000001     
 C       -5.7405999999999997       -5.3782759999999987        32.085413000000003     
 C       -5.4741730000000004       -9.0554060000000014        31.581657000000000     
 C       -6.6659519999999999       -9.3859230000000018        30.929765000000000     
 C       -7.6233990000000000       -8.4183420000000027        30.605521000000000     
 C       -7.4009260000000001       -7.0679049999999988        30.945247999999999     
 C       -2.9824760000000001       -7.8068219999999995        32.978285000000000     
 C       -1.3362879999999997        2.2065239999999999        35.132796999999997     
 C      -0.88478299999999965       -3.0514000000000001        34.247622999999997     
 C       -6.6660940000000002       -4.8624919999999987        33.171878999999997     
 C        1.6026000000000096E-002  -2.0687139999999999        34.722281000000002     
 C       0.78574900000000003       -1.2875719999999999        35.117353999999999     
 C      -0.33691199999999988       -4.3514220000000003        34.135455999999998     
 C       0.14921999999999969       -5.4074720000000012        34.051723000000003     
 C       -5.7317770000000001       0.38804999999999978        34.974226999999999     
 C       -5.6177520000000003       -4.4062989999999997        30.929140000000000     
 C       -6.9813140000000002        5.7928179999999996        34.799304999999997     
 C       -6.8438509999999999        7.0942759999999998        34.304322999999997     
 C       -7.9111380000000002        7.9971319999999997        34.295901999999998     
 C       -9.1370470000000008        7.5680639999999997        34.804319000000000     
 C       -9.2859119999999997        6.2400120000000001        35.311546000000000     
 C       -8.2244949999999992        5.3617610000000004        35.306800000000003     
 C       -10.358993000000000        8.2604220000000002        34.923104000000002     
 C       -11.335020999999999        7.4421390000000001        35.509524999999996     
 C       -10.710597999999999        6.0592660000000000        35.798228000000002     
 C       -10.715541000000000        5.7587880000000000        37.284592000000004     
 C       -12.609140999999999        7.9101590000000002        35.744345000000003     
 C       -13.741144999999999        7.3277359999999998        36.301642000000001     
 C       -15.047015999999999        7.9451190000000000        36.527042999999999     
 C       -15.538387999999999        6.6890169999999998        37.107126000000001     
 C       -14.215674999999999        6.0507819999999999        36.873662000000003     
 C       -16.792497999999998        6.4266790000000000        37.622633999999998     
 C       -13.737318000000000        4.9335959999999996        37.072653000000003     
 C       -17.358464000000001        5.2943730000000002        38.188021999999997     
 C       -18.675882000000001        5.2966660000000001        38.638922000000001     
 C       -19.024569000000000        4.0315719999999997        39.170206999999998     
 C       -17.904413999999999        3.1505350000000001        39.073936000000003     
 C       -16.748736999999998        3.8958550000000001        38.436498000000000     
 C       -20.228497999999998        3.5979440000000000        39.722901000000000     
 C       -20.298231000000001        2.2751039999999998        40.177171000000001     
 C       -19.207709999999999        1.4152849999999999        40.084076000000003     
 C       -17.995851999999999        1.8503829999999999        39.528272000000001     
 C       -19.562548000000000        6.4179149999999998        38.578100999999997     
 C       -10.566176000000000        9.6157140000000005        34.519526999999997     
 C       -15.591529000000000        9.1762639999999998        36.295926999999999     
 C       -16.362127000000001        3.2334649999999998        37.128267000000001     
 C       -14.861957000000000        10.235872000000001        35.706301000000003     
 C       -14.294067999999999        11.132334000000000        35.224159999999998     
 C       -16.930302000000001        9.4945109999999993        36.626184000000002     
 C       -18.027124000000001        9.7941529999999997        36.883172999999999     
 C       -15.586104000000001        3.9770940000000001        39.406894000000001     
 C       -11.399369999999999        4.9751789999999998        34.991703999999999     
